<?xml version="1.0" encoding="UTF-8"?>

<!-- generated on 04/16/20 21:18:08 by Eclipse SUMO netedit Version v1_5_0+1147-7decef50d5
<configuration xmlns:xsi="http://www.w3.org/2001/XMLSchema-instance" xsi:noNamespaceSchemaLocation="http://sumo.dlr.de/xsd/netconvertConfiguration.xsd">

    <input>
        <sumo-net-file value="net2.net.xml"/>
    </input>

    <output>
        <output-file value="net2.net.xml"/>
    </output>

    <processing>
        <geometry.min-radius.fix.railways value="false"/>
        <geometry.max-grade.fix value="false"/>
        <offset.disable-normalization value="true"/>
        <lefthand value="false"/>
    </processing>

    <junctions>
        <no-turnarounds value="true"/>
        <junctions.corner-detail value="5"/>
        <junctions.limit-turn-speed value="5.5"/>
        <rectangular-lane-cut value="false"/>
    </junctions>

    <pedestrian>
        <walkingareas value="true"/>
    </pedestrian>

    <netedit>
        <additional-files value="D:\sumo-git0415\bin\111.add.xml"/>
    </netedit>

    <report>
        <aggregate-warnings value="5"/>
    </report>

</configuration>
-->

<additional xmlns:xsi="http://www.w3.org/2001/XMLSchema-instance" xsi:noNamespaceSchemaLocation="http://sumo.dlr.de/xsd/additional_file.xsd">
    <poly id="110408618" type="water" color="181,209,209" fill="0" layer="-4.00" shape="3862.426743,1287.509861 3855.641096,1285.092733 3858.830672,1299.278283 3863.586918,1300.330103"/>
    <poly id="128898272" type="tourism" color="207,245,201" fill="1" layer="-2.00" shape="1265.742903,180.340301 1265.042107,187.133085 1258.889652,261.575994 1360.793984,271.584027 1356.475628,318.111311 1352.079630,365.450048 1350.975718,377.387446 1297.910037,373.954373 1290.575676,450.563737 1281.819813,449.599590 1251.620378,445.050744 1255.165964,420.059868 1207.466703,411.940934 1209.047626,402.244992 1174.300781,395.775934 1163.684452,393.798358 1154.157646,380.549228 1134.145583,376.656434 1109.422572,391.434850 1046.392672,381.396851 1039.175792,380.244262 1035.463622,379.936441 1035.682854,375.106372 1036.317116,366.129741 1036.589153,361.098861 1037.110098,355.685437 1037.609793,352.368991 1034.430588,348.522149 1033.138039,339.864579 1015.795121,315.403797 1018.911070,282.036043 1010.950646,280.422591 1016.948276,250.797194 998.731681,247.131960 999.891751,241.760149 977.059731,237.429559 977.819716,231.179000 963.595529,229.324161 967.947399,200.244658 959.841261,197.624962 961.433583,182.748438 952.837819,172.041693 952.180421,171.157432 951.707444,169.991857 951.464423,168.887855 951.349265,167.969657 951.421173,166.892108 951.679184,165.610857 952.209863,163.724692 963.638086,136.776936 966.342405,131.893015 969.582750,128.006915 972.581242,125.268603 985.977598,118.367087 989.269124,116.842627 996.487083,114.079455 1004.220407,111.360587 1012.099767,109.226473 1022.140268,107.034453 1034.111078,105.122315 1046.594937,103.587321 1055.781650,102.878063 1065.862028,102.526607 1073.713176,102.167980 1083.141926,101.198372 1086.966840,100.549806 1089.060044,99.994209 1091.965049,98.655636 1095.620886,96.357926 1099.023486,94.243185 1100.904411,92.682754 1102.166283,91.568344 1109.414465,78.322022 1111.491812,74.394600 1127.950031,74.271153 1131.077667,136.444418 1200.464035,135.984878 1217.255251,132.326886 1274.978263,119.374838 1291.507855,118.151923 1312.219217,116.483590 1325.370520,116.298885 1349.976754,122.499795 1362.526564,124.014231 1410.040626,126.602733 1409.797876,129.913592 1406.098540,180.853404 1403.985173,189.285156 1401.018323,193.930590 1397.488809,195.903772 1394.688393,196.352586 1265.742903,180.340301"/>
    <poly id="128898272#1" type="tourism" color="207,245,201" fill="1" layer="-2.00" shape="1265.742903,180.340301 1265.042107,187.133085 1258.889652,261.575994 1360.793984,271.584027 1356.475628,318.111311 1352.079630,365.450048 1350.975718,377.387446 1297.910037,373.954373 1290.575676,450.563737 1281.819813,449.599590 1251.620378,445.050744 1255.165964,420.059868 1207.466703,411.940934 1209.047626,402.244992 1174.300781,395.775934 1163.684452,393.798358 1154.157646,380.549228 1134.145583,376.656434 1109.422572,391.434850 1046.392672,381.396851 1039.175792,380.244262 1035.463622,379.936441 1035.682854,375.106372 1036.317116,366.129741 1036.589153,361.098861 1037.110098,355.685437 1037.609793,352.368991 1034.430588,348.522149 1033.138039,339.864579 1015.795121,315.403797 1018.911070,282.036043 1010.950646,280.422591 1016.948276,250.797194 998.731681,247.131960 999.891751,241.760149 977.059731,237.429559 977.819716,231.179000 963.595529,229.324161 967.947399,200.244658 959.841261,197.624962 961.433583,182.748438 952.837819,172.041693 952.180421,171.157432 951.707444,169.991857 951.464423,168.887855 951.349265,167.969657 951.421173,166.892108 951.679184,165.610857 952.209863,163.724692 963.638086,136.776936 966.342405,131.893015 969.582750,128.006915 972.581242,125.268603 985.977598,118.367087 989.269124,116.842627 996.487083,114.079455 1004.220407,111.360587 1012.099767,109.226473 1022.140268,107.034453 1034.111078,105.122315 1046.594937,103.587321 1055.781650,102.878063 1065.862028,102.526607 1073.713176,102.167980 1083.141926,101.198372 1086.966840,100.549806 1089.060044,99.994209 1091.965049,98.655636 1095.620886,96.357926 1099.023486,94.243185 1100.904411,92.682754 1102.166283,91.568344 1109.414465,78.322022 1111.491812,74.394600 1127.950031,74.271153 1131.077667,136.444418 1200.464035,135.984878 1217.255251,132.326886 1274.978263,119.374838 1291.507855,118.151923 1312.219217,116.483590 1325.370520,116.298885 1349.976754,122.499795 1362.526564,124.014231 1410.040626,126.602733 1409.797876,129.913592 1406.098540,180.853404 1403.985173,189.285156 1401.018323,193.930590 1397.488809,195.903772 1394.688393,196.352586 1265.742903,180.340301"/>
    <poly id="133428407" type="amenity" color="237,199,199" fill="1" layer="-1.00" shape="1228.264546,312.200224 1229.540054,295.433778 1242.888441,296.442694 1241.612912,313.209137 1228.264546,312.200224"/>
    <poly id="133428407#1" type="building" color="255,230,230" fill="1" layer="-1.00" shape="1228.264546,312.200224 1229.540054,295.433778 1242.888441,296.442694 1241.612912,313.209137 1228.264546,312.200224"/>
    <poly id="133428408" type="water" color="181,209,209" fill="1" layer="-4.00" shape="1124.095416,289.097719 1123.953334,291.774131 1123.694050,296.516319 1123.516607,299.759224 1123.112463,310.128537 1119.642147,309.992929 1119.585269,311.325282 1119.552716,312.901147 1116.150491,312.830623 1116.007702,316.793801 1115.872650,317.595399 1115.606221,318.488583 1114.485120,319.943818 1098.933625,334.645646 1096.530433,335.840242 1094.653385,336.258047 1092.927392,336.173411 1091.573845,335.692464 1090.315426,334.765750 1088.934177,332.566038 1088.172052,330.364009 1087.937679,328.339125 1087.971187,326.807609 1087.804989,325.291511 1087.657678,324.207619 1087.118793,323.076745 1085.420783,321.205582 1083.068599,319.037994 1079.242451,316.547366 1077.443236,315.721108 1075.260132,315.202668 1072.770750,315.056922 1070.216726,315.445025 1067.738958,316.275184 1065.788223,317.249224 1063.928465,318.465334 1061.837725,320.451842 1059.770593,322.648601 1058.493488,324.817154 1058.008468,325.293553 1057.218287,325.754377 1055.004956,326.478977 1053.128148,326.907878 1051.955434,327.299341 1050.844412,327.900228 1049.237648,328.922284 1042.234403,335.873814 1039.260701,339.754120 1036.220439,344.079577 1034.430588,348.522149 1033.247438,351.509529 1032.729968,354.005501 1031.912687,360.689912 1031.252485,368.469096 1031.099555,371.522898 1030.782339,373.149302 1030.419986,374.011290 1029.892408,374.721559 1029.137041,375.470042 1024.258212,378.470936 1021.061042,381.269007 1019.935156,382.502503 1019.321977,383.658336 1018.684909,386.789184 982.065675,380.083998 926.851515,369.832966 926.281122,372.962377 975.140725,381.853596 1022.633888,390.552787 1023.171553,390.308191 1023.451185,390.024815 1023.749531,389.286234 1024.524439,385.043131 1025.466364,382.793094 1026.112912,381.858393 1026.926126,381.141934 1027.901922,380.455232 1029.584933,379.875227 1031.019998,379.722117 1032.457705,379.690968 1035.463622,379.936441 1035.682854,375.106372 1036.317116,366.129741 1036.589153,361.098861 1037.110098,355.685437 1037.609793,352.368991 1038.447143,349.688606 1040.227887,346.144739 1042.584233,342.788071 1050.053671,334.051612 1052.283228,332.317225 1052.820417,332.050457 1053.484745,331.936231 1055.246423,331.909161 1055.931955,331.894311 1056.496353,332.004104 1057.239099,332.431722 1057.584353,332.978877 1057.775345,333.440633 1058.323926,335.458710 1059.132377,337.160563 1060.915207,339.429221 1063.185542,341.776061 1065.388096,343.192584 1066.553139,343.766352 1068.220168,344.207227 1069.988568,344.490609 1071.551258,344.512223 1074.451403,344.271920 1076.520556,343.927598 1078.742444,343.158447 1081.261003,341.573104 1083.620584,340.124317 1100.094394,340.299958 1107.006217,333.084225 1108.278863,332.468750 1110.056701,332.308227 1129.612227,334.469319 1143.816670,329.702468 1145.464608,320.903570 1159.253364,323.333797 1159.793110,321.425263 1169.511867,321.980226 1173.389848,329.505836 1172.130263,339.083900 1169.177894,347.911036 1177.655022,349.635434 1181.198602,344.356249 1181.008801,334.709733 1187.335008,334.761344 1187.365973,336.191628 1192.536745,336.112960 1192.517542,335.225962 1195.970883,335.018088 1199.930613,335.320607 1202.601849,336.826845 1205.784435,335.992553 1208.351419,334.883178 1209.820979,331.922901 1211.054027,329.478006 1212.412612,327.551749 1212.863397,324.613526 1207.786873,324.645772 1207.771993,322.638321 1204.157666,322.450340 1204.321053,315.036899 1202.748120,314.982209 1204.127208,290.681591 1206.872226,290.755279 1207.072426,281.521844 1209.072707,279.315472 1209.027343,277.219939 1207.167805,277.127082 1207.167009,274.010059 1207.638678,272.036446 1208.871254,269.569376 1210.013578,266.893500 1210.817213,265.733558 1211.765187,265.080755 1213.095215,264.475145 1214.553341,264.066431 1216.718685,263.764427 1228.776699,263.248286 1230.113688,262.964215 1232.008277,262.035793 1234.215553,260.590340 1235.843468,259.223984 1237.469625,257.336311 1238.709727,255.656662 1239.437117,254.054667 1239.961602,251.880245 1240.393201,248.055026 1240.683343,243.855718 1240.688078,240.993708 1239.992551,238.346522 1238.852161,235.830984 1238.367460,234.122112 1238.212005,232.661245 1238.554462,230.879006 1239.587582,228.438443 1240.510922,227.087339 1240.936348,226.057605 1241.115659,225.099755 1241.210639,223.766579 1240.463342,221.808259 1239.483607,220.553808 1239.246214,220.148518 1239.238055,219.771544 1239.295586,219.348777 1240.765413,216.399593 1241.239809,214.991649 1242.023936,212.489921 1242.322070,210.420232 1242.370489,208.256114 1245.187913,171.622618 1245.291852,171.143384 1245.740404,170.301726 1246.233281,169.747518 1247.156781,169.283824 1248.383528,168.747011 1249.813103,168.338920 1251.569047,168.045786 1252.852520,167.929267 1254.146713,167.867979 1255.090294,167.891929 1256.358323,167.942134 1253.089758,167.447148 1238.767471,165.460945 1239.619677,165.664354 1240.128152,165.830831 1240.745202,166.172441 1241.297523,166.604194 1241.837279,167.335720 1242.304704,168.246294 1242.678354,169.225454 1242.839653,170.076099 1242.903818,170.840104 1239.992147,207.520012 1239.926450,208.885831 1239.556867,210.735213 1238.922845,212.690153 1238.136961,214.670564 1237.653686,215.668272 1236.902373,216.605225 1232.219194,221.609549 1230.025589,223.686987 1229.105130,225.171143 1228.808762,226.442122 1228.975180,227.969308 1229.255536,229.039228 1230.244871,230.737177 1231.175638,232.369838 1232.054874,234.702452 1232.614386,236.786856 1234.184472,250.352481 1234.072370,251.774769 1233.834252,252.656244 1233.422111,253.419466 1232.361397,254.584970 1230.730920,256.273069 1229.666846,257.283349 1228.791681,257.779277 1227.460932,258.351622 1226.120582,258.480469 1216.865839,258.680799 1214.182020,258.794358 1212.211182,259.280728 1210.436290,260.017987 1207.802076,261.982950 1205.172263,264.591193 1203.380088,267.170211 1202.072061,270.992221 1201.399083,275.987398 1192.247487,275.231548 1178.906829,277.661255 1177.966373,273.821367 1175.472898,269.527024 1165.744647,266.775908 1165.043436,269.586444 1156.951095,267.598588 1157.781522,264.596678 1146.752602,262.927545 1147.012946,259.993441 1146.735223,259.045485 1146.218986,258.080508 1145.737315,257.392099 1145.279488,256.925028 1144.883831,256.689556 1144.510818,256.619984 1143.816000,256.646122 1143.208554,256.748017 1142.518778,257.006992 1142.028709,257.250550 1141.498237,257.827763 1140.143022,261.229282 1139.765371,261.825371 1139.225858,262.424966 1138.386622,262.820290 1137.493056,262.906195 1136.528039,262.771794 1128.170123,259.957760 1126.555410,259.293888 1125.573106,258.361190 1124.820754,257.490068 1124.381646,256.567792 1122.648818,253.088939 1110.081121,233.150249 1105.983759,226.494636 1104.801417,225.122565 1102.914493,223.765753 1100.656234,222.416983 1096.783339,220.848052 1092.804830,219.680745 1085.842044,218.389500 1083.249982,217.902100 1082.085406,217.350504 1079.692643,215.949189 1077.743062,214.338606 1075.401662,212.669955 1073.134992,210.933129 1071.235813,209.010861 1070.118673,207.570824 1069.443515,205.866083 1069.218745,204.284698 1069.251278,201.388804 1068.763394,189.419277 1068.794261,187.765799 1069.023241,186.462996 1069.506417,185.021575 1070.269797,183.762660 1071.397874,182.628958 1072.872719,181.232613 1060.388704,188.912932 1061.425577,188.846101 1061.893327,188.891433 1062.487978,189.078220 1063.095512,189.420027 1063.635916,189.741101 1064.171602,190.284132 1064.583509,190.829844 1064.855477,191.511699 1064.921492,191.920698 1065.399403,199.031847 1065.659958,202.265266 1066.102055,205.084324 1066.635678,207.291301 1067.862442,209.394524 1069.763388,211.838109 1072.508939,214.573995 1075.685749,216.989947 1078.859351,218.818056 1082.268500,220.086430 1085.095079,220.846068 1088.526787,221.836639 1097.215844,225.863668 1099.343361,226.893580 1100.350153,227.637171 1101.261011,228.349561 1102.472637,229.754275 1107.365724,237.524107 1117.600358,255.738491 1118.335192,257.120254 1118.892168,259.526396 1119.001557,261.498524 1118.850988,263.343169 1118.282524,265.684942 1117.845272,267.047717 1117.607405,267.940283 1117.511240,269.218023 1117.450631,274.776767 1121.787639,274.904698 1122.760256,274.950192 1122.777950,276.646988 1124.577721,276.619106 1124.095416,289.097719"/>
    <poly id="206076447" type="building" color="255,230,230" fill="1" layer="-1.00" shape="1492.988406,3977.639559 1501.662293,3988.588863 1500.010187,4002.446145 1488.998814,4011.081710 1475.079677,4009.441837 1466.405537,3998.481465 1468.057839,3984.635264 1479.069227,3975.999677 1492.988406,3977.639559"/>
    <poly id="206076447#1" type="man_made" color="255,230,230" fill="1" layer="-1.00" shape="1492.988406,3977.639559 1501.662293,3988.588863 1500.010187,4002.446145 1488.998814,4011.081710 1475.079677,4009.441837 1466.405537,3998.481465 1468.057839,3984.635264 1479.069227,3975.999677 1492.988406,3977.639559"/>
    <poly id="206076447#2" type="tourism" color="207,245,201" fill="1" layer="-2.00" shape="1492.988406,3977.639559 1501.662293,3988.588863 1500.010187,4002.446145 1488.998814,4011.081710 1475.079677,4009.441837 1466.405537,3998.481465 1468.057839,3984.635264 1479.069227,3975.999677 1492.988406,3977.639559"/>
    <poly id="206076449" type="building" color="255,230,230" fill="1" layer="-1.00" shape="1488.697516,3906.994242 1489.374439,3899.114857 1500.822706,3900.098315 1500.136017,3907.966817 1488.697516,3906.994242"/>
    <poly id="206076451" type="building" color="255,230,230" fill="1" layer="-1.00" shape="1463.472417,4036.293476 1492.907309,4039.871421 1490.907328,4056.132263 1461.472480,4052.554326 1463.472417,4036.293476"/>
    <poly id="206076453" type="water" color="181,209,209" fill="1" layer="-4.00" shape="1537.949781,4125.297483 1540.387659,4115.627336 1541.948876,4109.448183 1549.041808,4106.754427 1558.660335,4106.801376 1567.931586,4110.161477 1568.388058,4119.813344 1563.865519,4130.837541 1537.949781,4125.297483"/>
    <poly id="206076454" type="building" color="255,230,230" fill="1" layer="-1.00" shape="1455.325901,4084.002150 1456.984546,4068.691567 1488.051624,4072.012296 1486.392935,4087.322872 1455.325901,4084.002150"/>
    <poly id="206076455" type="building" color="255,230,230" fill="1" layer="-1.00" shape="1453.098305,4095.464789 1485.115254,4099.119902 1483.382512,4114.088209 1451.374884,4110.421810 1453.098305,4095.464789"/>
    <poly id="206076966" type="residential" color="235,235,227" fill="1" layer="-3.00" shape="424.083576,2961.306896 431.147110,2962.051832 434.880224,2962.924646 435.028651,2960.114945 438.565719,2960.293177 442.256777,2960.545712 442.275568,2959.657881 455.092391,2960.455236 454.940234,2965.283903 457.371898,2965.430710 456.871178,2974.814994 459.854455,2974.927623 472.083373,2975.404995 472.005149,2968.739935 472.065624,2965.388601 483.221924,2965.589799 483.151926,2968.941340 483.181091,2971.159261 483.199652,2972.889331 483.102663,2975.875397 475.583563,2975.639505 475.595501,2978.379162 463.208381,2978.071617 463.139603,2983.231255 462.901908,2991.134482 462.476987,3002.691304 462.434716,3007.317912 462.669466,3013.735529 462.894334,3019.698556 466.459937,3019.876176 470.120729,3020.051727 469.999160,3021.906865 469.783975,3025.150634 469.217821,3033.715476 469.205050,3034.004165 469.161435,3034.626309 463.109245,3034.402912 463.176495,3037.496335 462.850239,3044.392045 462.783975,3045.724620 451.444607,3044.983884 451.106418,3050.016267 434.412638,3049.170106 434.675391,3044.172641 434.908507,3039.564067 425.570258,3038.879685 426.163339,3027.174995 426.730643,3016.036598 420.446852,3015.674053 420.647440,3012.197650 420.901028,3006.778858 420.937386,3003.195098 421.531598,2982.782548 416.586096,2982.213421 416.972125,2978.943749 415.874075,2978.812326 416.026486,2977.500063 412.780170,2977.115847 413.818857,2968.385426 416.816961,2968.741761 417.079968,2965.508043 423.590439,2966.220628 424.083576,2961.306896"/>
    <poly id="206076966#1" type="leisure" color="207,245,201" fill="1" layer="-2.00" shape="424.083576,2961.306896 431.147110,2962.051832 434.880224,2962.924646 435.028651,2960.114945 438.565719,2960.293177 442.256777,2960.545712 442.275568,2959.657881 455.092391,2960.455236 454.940234,2965.283903 457.371898,2965.430710 456.871178,2974.814994 459.854455,2974.927623 472.083373,2975.404995 472.005149,2968.739935 472.065624,2965.388601 483.221924,2965.589799 483.151926,2968.941340 483.181091,2971.159261 483.199652,2972.889331 483.102663,2975.875397 475.583563,2975.639505 475.595501,2978.379162 463.208381,2978.071617 463.139603,2983.231255 462.901908,2991.134482 462.476987,3002.691304 462.434716,3007.317912 462.669466,3013.735529 462.894334,3019.698556 466.459937,3019.876176 470.120729,3020.051727 469.999160,3021.906865 469.783975,3025.150634 469.217821,3033.715476 469.205050,3034.004165 469.161435,3034.626309 463.109245,3034.402912 463.176495,3037.496335 462.850239,3044.392045 462.783975,3045.724620 451.444607,3044.983884 451.106418,3050.016267 434.412638,3049.170106 434.675391,3044.172641 434.908507,3039.564067 425.570258,3038.879685 426.163339,3027.174995 426.730643,3016.036598 420.446852,3015.674053 420.647440,3012.197650 420.901028,3006.778858 420.937386,3003.195098 421.531598,2982.782548 416.586096,2982.213421 416.972125,2978.943749 415.874075,2978.812326 416.026486,2977.500063 412.780170,2977.115847 413.818857,2968.385426 416.816961,2968.741761 417.079968,2965.508043 423.590439,2966.220628 424.083576,2961.306896"/>
    <poly id="206077331" type="leisure" color="207,245,201" fill="1" layer="-2.00" shape="509.747128,3454.204848 515.584829,3419.601575 520.210827,3420.377348 579.315429,3430.240985 573.477531,3464.844210 509.747128,3454.204848"/>
    <poly id="206501417" type="building" color="255,230,230" fill="1" layer="-1.00" shape="1019.551260,2635.339811 1023.311852,2609.367845 970.386374,2601.796680 966.625666,2627.757584 1019.551260,2635.339811"/>
    <poly id="293947723" type="water" color="181,209,209" fill="1" layer="-4.00" shape="3861.851801,382.433217"/>
    <poly id="315110732" type="amenity" color="237,199,199" fill="1" layer="-1.00" shape="3511.847665,4162.002359 3561.711897,4168.087192 3569.255616,4165.973072 3573.275448,4160.717716 3579.466936,4109.769987 3579.238070,4106.203099 3578.654661,4103.420295 3576.475139,4099.473734 3574.413623,4097.033228 3570.647012,4093.675341 3567.748403,4091.718679 3565.194566,4090.741858 3529.852147,4084.700360 3511.847665,4162.002359"/>
    <poly id="315110785" type="water" color="181,209,209" fill="1" layer="-4.00" shape="3206.849959,4760.362372 3206.848839,4762.525449 3207.196250,4763.627241 3208.237222,4764.658664 3212.119109,4767.181994 3215.956955,4768.985254 3226.748069,4772.236422 3235.218610,4773.840302 3241.757358,4773.721980 3250.255418,4772.618692 3258.292583,4770.449334 3264.112723,4767.906100 3268.757255,4765.155184 3277.302751,4757.839058 3284.250558,4750.169025 3303.297786,4721.551427 3311.797852,4701.036153 3313.751602,4694.915457 3314.694921,4691.401034 3314.500234,4688.543334 3313.745460,4685.764219 3312.667110,4683.435758 3311.038200,4681.629382 3309.348156,4680.523151 3305.229802,4679.846231 3266.887491,4678.129748 3265.796734,4693.394378 3263.608346,4697.013205 3260.211763,4701.123879 3257.621250,4703.753016 3253.430420,4706.349983 3249.481548,4708.242921 3245.566672,4709.059150 3239.621774,4709.785891 3234.104649,4709.593851 3231.451969,4717.748434 3230.569054,4719.198349 3229.248813,4720.236144 3227.680860,4720.380764 3219.498677,4719.791207 3210.002151,4741.337411 3206.849959,4760.362372"/>
    <poly id="329351270" type="parking" color="184,184,179" fill="1" layer="-1.00" shape="2418.717814,3973.357803 2420.354534,3964.914300 2428.566037,3966.390063 2431.866816,3953.861876 2438.410060,3955.251594 2445.088875,3924.059343 2467.030755,3920.192007 2518.783109,3926.297884 2502.801618,4003.037212 2559.779101,4014.787713 2580.264574,4019.349096 2638.904319,4039.317103 2636.957174,4059.880382 2608.895186,4055.903634 2581.983596,4051.403006 2555.170862,4045.746682 2542.175762,4041.456549 2542.662249,4040.170414 2521.633598,4033.380102 2520.766400,4034.674443 2519.825607,4035.204979 2517.152567,4035.772848 2512.934689,4035.353490 2501.436083,4029.367259 2502.744878,4025.146038 2475.841507,4021.033737 2459.329005,4019.226621 2453.406855,4017.934430 2456.574961,4001.460135 2436.351383,3997.126286 2440.132465,3978.608818 2418.717814,3973.357803"/>
    <poly id="346330951" type="amenity" color="237,199,199" fill="1" layer="-1.00" shape="1798.045070,1241.080707 1796.606461,1244.151162 1794.186897,1244.580572 1786.380038,1243.861785 1759.609279,1240.502178 1750.137476,1239.431143 1730.725333,1239.850528 1720.999347,1238.918122 1705.171171,1235.932326 1646.950224,1227.772843 1639.760245,1226.952090 1596.904302,1223.707617 1599.618773,1166.421942 1604.261463,1156.915013 1611.433574,1086.843004 1597.416395,1085.249157 1603.027336,1022.709527 1544.329889,1016.801530 1543.665227,1012.933472 1552.502162,962.159913 1569.474342,864.710112 1583.183791,785.955459 1587.661375,783.784349 1640.915431,785.462004 1665.563104,787.491790 1728.732833,792.693853 1799.851032,798.545493 1799.493399,803.156657 1791.567807,906.777687 1740.533377,904.197239 1738.778929,904.113119 1733.736293,1013.284859 1765.651890,1014.913790 1785.838904,1015.953088 1784.786031,1042.176630 1796.228529,1043.194055 1795.151171,1064.315512 1815.494004,1065.517883 1815.172620,1068.719502 1811.640575,1106.288878 1813.214567,1108.162819 1811.536942,1125.747595 1798.045070,1241.080707"/>
    <poly id="346330952" type="landuse" color="194,194,130" fill="1" layer="-3.00" shape="1827.463159,1066.224465 1815.494004,1065.517883 1795.151171,1064.315512 1796.228529,1043.194055 1784.786031,1042.176630 1785.838904,1015.953088 1765.651890,1014.913790 1733.736293,1013.284859 1738.778929,904.113119 1740.533377,904.197239 1791.567807,906.777687 1839.230236,909.797246 1827.463159,1066.224465"/>
    <poly id="346330952#1" type="tourism" color="207,245,201" fill="1" layer="-2.00" shape="1827.463159,1066.224465 1815.494004,1065.517883 1795.151171,1064.315512 1796.228529,1043.194055 1784.786031,1042.176630 1785.838904,1015.953088 1765.651890,1014.913790 1733.736293,1013.284859 1738.778929,904.113119 1740.533377,904.197239 1791.567807,906.777687 1839.230236,909.797246 1827.463159,1066.224465"/>
    <poly id="346330954" type="commercial" color="209,209,204" fill="1" layer="-3.00" shape="1788.929103,1605.704125 1792.791924,1605.953459 1882.058723,1611.823614 1886.289651,1611.477123 1888.667713,1609.129598 1890.479740,1604.387193 1892.010779,1557.077326 1892.807292,1511.036790 1894.887131,1413.265792 1867.521671,1412.336981 1862.269927,1417.020551 1817.977282,1411.598834 1811.034498,1410.750450 1788.929103,1605.704125"/>
    <poly id="351396916" type="building" color="255,230,230" fill="1" layer="-1.00" shape="1154.832743,2201.000647 1159.940994,2156.319469 1257.401346,2167.330952 1251.436433,2219.529269 1221.028012,2216.094702 1221.508883,2211.913430 1182.049445,2207.454835 1182.424803,2204.118891 1154.832743,2201.000647"/>
    <poly id="351396917" type="building" color="255,230,230" fill="1" layer="-1.00" shape="1178.893833,2029.263444 1173.750963,2085.104602 1204.078256,2087.853073 1219.362161,2093.900309 1231.957621,2097.188250 1243.229255,2098.718953 1254.708451,2097.960076 1271.995254,2094.024953 1282.950488,2095.019008 1285.891864,2062.398256 1276.650623,2061.389265 1277.150868,2055.022318 1213.034001,2049.300521 1212.640979,2054.899755 1203.789395,2054.292816 1205.871692,2031.707343 1178.893833,2029.263444"/>
    <poly id="363940704" type="water" color="181,209,209" fill="1" layer="-4.00" shape="2452.041553,291.017543 2576.629270,309.689170 2657.303499,318.624602 2715.282818,321.581706 2741.449769,322.915858 2799.627919,331.581803 2819.949942,330.878751 2856.108861,332.641784 2964.945226,344.035879 2998.866562,345.847463 3033.036590,342.828569 3073.607012,347.315109 3250.646933,365.877946 3346.916880,370.113568 3422.764370,374.366337 3490.272669,379.308615 3519.348521,383.499664 3629.641708,404.741616 3640.482950,407.914812 3667.734194,415.872406 3705.640737,430.335046 3727.425489,436.124784 3726.714101,438.935314 3741.065898,442.355133 3740.242073,446.587904 3794.788787,456.579331 3797.295032,448.173073 3838.942698,456.754750 3841.954919,480.450325 3840.591404,478.604877 3838.670182,476.959936 3834.414416,475.276212 3815.156388,470.485972 3794.128293,467.109115 3791.240930,465.274103 3787.908272,462.661058 3783.116522,459.968320 3778.502946,458.924546 3766.694376,457.280496 3757.334898,454.796468 3747.259621,453.137521 3735.050389,452.356202 3726.503113,452.661205 3720.655538,452.708751 3711.844919,454.505794 3706.430462,456.097020 3699.905633,457.434711 3696.366322,459.407306 3695.021334,461.987372 3694.249932,465.553477 3693.062579,467.043107 3691.304015,467.657570 3676.211844,466.583093 3672.222394,464.882637 3669.817706,463.347910 3668.293059,460.651813 3667.846924,457.610939 3667.399220,448.269577 3663.141913,443.402415 3642.777078,439.867447 3632.164544,438.031542 3606.905429,433.691885 3599.696131,432.870176 3552.173423,423.073107 3477.572863,414.755050 3392.450624,406.629820 3258.489261,396.646680 3231.789489,394.435294 3228.586346,394.759148 3225.980174,395.380784 3224.020955,396.410055 3222.923395,397.642687 3222.471130,398.761642 3221.823902,401.448822 3221.362804,404.819744 3215.094116,404.333072 3214.930621,401.596732 3214.372711,399.123983 3213.474901,396.347937 3212.147208,393.958260 3210.484362,392.374436 3209.024310,391.363070 3207.092722,390.572581 3200.142796,389.412800 3100.334808,378.776458 3030.714325,372.639663 3025.979219,372.153446 2995.219463,368.964959 2973.863260,366.750374 2879.885680,357.066828 2802.595950,350.009260 2798.740100,349.659538 2754.201840,340.068052 2749.091824,340.311033 2746.988639,341.731730 2745.250627,344.187274 2744.013469,347.785673 2742.810687,361.399899 2740.199385,364.883643 2738.878925,368.594760 2738.581537,372.927246 2739.177691,376.730262 2740.538160,380.638861 2740.108404,391.219295 2728.362177,391.604986 2729.526704,380.642697 2731.011164,377.027884 2732.188772,372.432434 2731.693009,367.096489 2729.136844,361.183667 2729.620337,349.115677 2728.449777,344.293406 2726.385002,341.298449 2721.237506,338.469616 2717.321404,337.533315 2712.629349,337.279254 2631.862132,335.965996 2453.013746,311.839542 2452.041553,291.017543"/>