<?xml version="1.0" encoding="UTF-8"?>

<!-- Generated with SUMO Activity-Based Mobility Generator [https://github.com/lcodeca/SUMOActivityGen] -->

<routes xmlns:xsi="http://www.w3.org/2001/XMLSchema-instance" xsi:noNamespaceSchemaLocation="http://sumo.dlr.de/xsd/routes_file.xsd"> 
    <person id="7363779_7769377_2" type="pedestrian" depart="17637.15">
        <walk edges="-44669518#0 -440356231#6" busStop="-5867326291"/>
        <ride busStop="5867326285" lines="9003:0" intended="bus_9003:0.30" depart="18150.0"/>
        <walk edges="44669522#1 -44669522#2" busStop="-5867326286"/>
        <ride busStop="5867517607" lines="9004:0" intended="bus_9004:0.30" depart="18446.0"/>
        <walk edges="348725324#4 348725324#3 -44669532#1 36999946#2 36999946#3 36999946#4 36999946#5" busStop="-7152453359"/>
        <ride busStop="-4570243010" lines="4:1" intended="subway_4:1.31" depart="19178.0"/>
        <walk edges="442518549#6 -44669545#1 -44669545#2 -44669545#3 -44669545#4 -44669545#5 298460112#2 298460112#1 298460112#0 454323274#1 454323274#0 -449258955#1" arrivalPos="49.11688898473137"/>
        <stop lane="-449258955#1_0" duration="31290.845302131947" actType="P-D"/>
        <walk edges="-449258955#1 454323274#0 454323274#1 -454323298 -454323297 44669526#0 44669526#1 44669526#2 44669526#3 442386643#0 442386643#1 442518549#11 442518549#12" busStop="4570243009"/>
        <ride busStop="4570243008" lines="4:0" intended="subway_4:0.87" depart="52374.0"/>
        <walk edges="620937807#4 620937810#0 620937810#1 620937810#2 620937810#3 621164893#0 621164893#1 440356231#0 440356231#1 440356231#2 440356231#3 440356231#4 440356231#5 440356231#6 -44669518#0" arrivalPos="265.69687887349016"/>
        <stop lane="-44669518#0_0" duration="1462.0203317908931" actType="Home"/>
        <walk edges="-44669518#0 -559744083 -44669519#2 -44669519#1 -44669519#0 -440356231#3" busStop="-5867326289"/>
        <ride busStop="-5866058277" lines="9004:0" intended="bus_9004:0.93" depart="56021.0"/>
        <ride busStop="5866058302" lines="9011:0" intended="bus_9011:0.93" depart="56275.0"/>
        <walk edges="44669520#4 -44669520#3 -315108401" arrivalPos="17.489192928188192"/>
        <stop lane="-315108401_0" duration="6050.615886874015" actType="S-S"/>
        <walk edges="-315108401 -44669520#3 -44669520#4 -620937813 621156389#1" busStop="5866058297"/>
        <ride busStop="-5866058279" lines="9011:0" intended="bus_9011:0.105" depart="63145.0"/>
        <walk edges="-621164893#1 -440356231#0 -440356231#1 -440356231#2 -440356231#3 -440356231#4 -440356231#5 -440356231#6 -44669518#0" arrivalPos="265.69687887349016"/>
        <stop lane="-44669518#0_0" duration="1.0" actType="Home"/>
    </person>
    <person id="7363780_7768896_0" type="pedestrian" depart="18180.83">
        <walk edges="44669551#1 -559744138#1 -559744138#0 419912484#0 117947985 620937811#1 620937811#0 44669548#3 44669548#2 44669548#1 44669548#0 -621156392 621156391#0 621156391#1" busStop="5866058294"/>
        <ride busStop="5867516264" lines="9003:0" intended="bus_9003:0.31" depart="19160.0"/>
        <walk edges="621156408#1 621156412#1 621156412#0 131443655#16 131443655#15 131443655#14 131443655#13 -131443655#12 -131443655#11 -131443655#10 -131443655#9 -131445516#2 -131445516#1" arrivalPos="24.251882174109774"/>
        <stop lane="-131445516#1_0" duration="31208.880509532813" actType="P-D"/>
        <walk edges="-131445516#1 -131445516#2 -44044883#0 -44044883#1 -44044883#2 -44044883#3 -407520129 -559744224 407520124#1 525823874 407520125#0 407520125#1 -407520125#2 -407520125#3 -407520125#4 36999946#11" busStop="4570243009"/>
        <ride busStop="4625473982" lines="4:0" intended="subway_4:0.87" depart="52374.0"/>
        <walk edges="621655561 621156398#0" busStop="5866058295"/>
        <ride busStop="5866058290" lines="9011:0" intended="bus_9011:0.88" depart="53015.0"/>
        <walk edges="44669548#1 44669548#2 44669548#3 620937811#0 620937811#1 117947985 419912484#0 419912484#1 -44669551#2 44669551#1" arrivalPos="12.867383765047148"/>
        <stop lane="44669551#1_0" duration="1.0" actType="Home"/>
    </person>
    <vehicle id="7363834_7769368_1_tr" type="bicycle" depart="triggered">
        <route edges="-618059882 296360708#6 296360708#7 44669524#0 44669524#1 44669524#2 44669524#3 44669524#4 44669535#4 -449265264#1 -449265264#0 -449265263 -449265250 449265275#1 -449265287#3 -449265287#2 -449265287#1 -449265287#0 24535157#1 -454323286#4 -454323286#3 -454323286#2 -454323286#1 -454323286#0 -454323281#3 -454323281#2 -454323281#1 -454323281#0 -454323220#2 -454323220#1 -454323220#0 525823904#2 525823904#3 525823904#4 -559744162 454323286#2 454323286#3 454323286#4 -24535157#1 -24535157#0 -538444308#3 -538444308#2 -538444308#1 -538444308#0 -44669552#11 -44669552#10 -44669552#9 -44669552#8 -44669552#7 -44669552#6 -44669552#5 -44669552#4 -44669552#3 -618059882"/>
        <stop lane="-454323281#2_1" parking="true" startPos="9.843056183346995" endPos="29.843056183346995" triggered="true" expected="7363834_7769368_1"/>
        <stop lane="-559744162_1" parking="true" startPos="122.18426249971992" endPos="142.18426249971992" triggered="true" expected="7363834_7769368_1"/>
        <stop lane="-618059882_1" duration="1.0"/>
    </vehicle>
    <person id="7363834_7769368_1" type="pedestrian" depart="18547.76">
        <ride from="-618059882" to="-454323281#2" arrivalPos="19.843056183346995" lines="7363834_7769368_1_tr"/>
        <stop lane="-454323281#2_0" duration="28737.686639583117" actType="P-D"/>
        <ride from="-454323281#2" to="-559744162" arrivalPos="132.18426249971992" lines="7363834_7769368_1_tr"/>
        <stop lane="-559744162_0" duration="10567.479947909082" actType="S-L"/>
        <ride from="-559744162" to="-618059882" arrivalPos="128.44007548333104" lines="7363834_7769368_1_tr"/>
        <stop lane="-618059882_0" duration="1.0" actType="Home"/>
    </person>
    <vehicle id="7363834_7768898_1_tr" type="motorcycle" depart="triggered">
        <route edges="344310547#3 -44669552#4 -44669552#3 -618059882 -442517205 -525823906#1 -525823906#0 296360974#0 36999946#8 36999946#9 36999946#10 36999946#11 36999946#12 36999946#13 36999946#14 36999946#15 36999946#16 36999946#17 36999946#18 36999946#19 36999946#20 36999945#0 442067149#0 442067149#1 -442067149#1 -442067149#0 -36999945#0 44669545#0 442518549#6 442518549#7 442518549#8 442518549#9 442518549#10 442518549#11 442518549#12 442518549#13 442518549#14 442518549#15 442518549#16 442518549#17 442518549#18 442518549#19 442518549#20 442518549#21 621156401#1 621156401#2 620937806#0 620937806#1 620937806#2 620937802#0 621156399 621655561 620937807#0 620937807#1 620937807#2 620937807#3 620937807#4 621156388#0 621156388#1 621156388#2 36999946#1 36999946#2 -442518548#6 -442518548#5 -442518548#4 -442518548#3 -442518548#2 -442518548#1 -442518548#0 442518548#0 344310547#1 344310547#2 344310547#3"/>
        <stop parkingArea="4451401346" triggered="true" expected="7363834_7768898_1"/>
        <stop parkingArea="5237364665" triggered="true" expected="7363834_7768898_1"/>
        <stop lane="344310547#3_2" duration="1.0"/>
    </vehicle>
    <person id="7363834_7768898_1" type="pedestrian" depart="18635.52">
        <ride from="344310547#3" to="-442067149#1" arrivalPos="15.240000000000002" lines="7363834_7768898_1_tr"/>
        <walk edges="-442067149#1 -442067149#0 444124723#0 44669539#1 -44669539#2 -44669539#3 -44669539#4 503535578#4 503535578#3 503535578#2 503535578#1 503535578#0 372693170#4 -372693170#3 -372693170#2 -372693170#1 -478124023 298460353#4 181596127#6 441761560#0 -441761562#3 -441761562#2 -441761562#1 -441761562#0 131445522#1 131445515 -131445514#0"/>
        <stop lane="-131445514#0_0" duration="31690.443441287098" actType="P-D"/>
        <walk edges="-131445514#0 131445515 131445522#1 -441761562#0 -441761562#1 -441761562#2 -441761562#3 441761560#0 181596127#6 298460353#4 -478124023 -372693170#1 -372693170#2 -372693170#3 372693170#4 503535578#0 503535578#1 503535578#2 503535578#3 503535578#4 -44669539#4 -44669539#3 -44669539#2 44669539#1 444124723#0 -442067149#0 -442067149#1" arrivalPos="15.240000000000002"/>
        <ride from="-442067149#1" to="620937806#0" arrivalPos="92.42423940332769" lines="7363834_7768898_1_tr"/>
        <walk edges="620937806#0" busStop="-4570243008"/>
        <walk edges="-620937804 621156388#0 621156388#1 621156388#2 36999946#1 36999946#2 36999946#3 36999946#4 36999946#5 36999946#6 36999946#7 36999946#8 -442518551"/>
        <stop lane="-442518551_0" duration="10694.82263937019" actType="S-L"/>
        <walk edges="-442518551 296360617#2 296360617#3 296360617#4 621156407#2 621550275#1 348725324#0 348725331#0 36999946#4 36999946#3 36999946#2 36999946#1 621156388#2 621156388#1 621156388#0 -620937804 620937806#0" arrivalPos="92.42423940332769"/>
        <ride from="620937806#0" to="344310547#3" arrivalPos="135.4578494903882" lines="7363834_7768898_1_tr"/>
        <stop lane="344310547#3_0" duration="1.0" actType="Home"/>
    </person>
    <vehicle id="7363797_7768886_1_tr" type="bicycle" depart="triggered">
        <route edges="-298460355#2 -298460355#1 -298460355#0 131443655#8 131443655#9 131443655#10 131443655#11 131443655#12 131443655#13 131443655#14 -128898265#1 614424782 128898259#1 462717451#0 462717451#1 462717451#2 462717451#3 -298460355#2"/>
        <stop lane="614424782_1" parking="true" startPos="20.81756142955028" endPos="40.81756142955028" triggered="true" expected="7363797_7768886_1"/>
        <stop lane="462717451#3_1" parking="true" startPos="31.86806686622532" endPos="51.86806686622532" triggered="true" expected="7363797_7768886_1"/>
        <stop lane="-298460355#2_1" duration="1.0"/>
    </vehicle>
    <person id="7363797_7768886_1" type="pedestrian" depart="18708.53">
        <ride from="-298460355#2" to="614424782" arrivalPos="30.81756142955028" lines="7363797_7768886_1_tr"/>
        <stop lane="614424782_0" duration="26725.976500696845" actType="P-D"/>
        <ride from="614424782" to="462717451#3" arrivalPos="41.86806686622532" lines="7363797_7768886_1_tr"/>
        <stop lane="462717451#3_0" duration="14796.213672613203" actType="S-L"/>
        <ride from="462717451#3" to="-298460355#2" arrivalPos="36.13735752443333" lines="7363797_7768886_1_tr"/>
        <stop lane="-298460355#2_0" duration="1.0" actType="Home"/>
    </person>
    <vehicle id="7363797_7769378_0_tr" type="bicycle" depart="triggered">
        <route edges="36999946#10 442518550#0 442518550#1 296360617#0 296360617#1 296360617#2 -296360974#2 -296360974#1 -296360974#0 525823906#0 525823906#1 442517205 618059882 449378242#0 449378242#1 449378242#2 449378242#3 449378242#4 449378242#5 449378242#6 449378242#7 449378242#8 449378242#9 449378260 449378253 66254469#1 449259560 449378297#3 449378297#4 66254174#1 -316161555#1 -316161555#0 -66254469#2 -66254469#1 -449378253 -449378260 -449378242#9 -449378242#8 -449378242#7 -449378242#6 -449378242#5 -449378242#4 -449378242#3 -449378242#2 -449378242#1 -449378242#0 -618059882 -442517205 -525823906#1 -525823906#0 296360974#0 36999946#8 36999946#9 36999946#10"/>
        <stop lane="449378297#3_1" parking="true" startPos="274.96616271820415" endPos="294.96616271820415" triggered="true" expected="7363797_7769378_0"/>
        <stop lane="-525823906#0_1" parking="true" startPos="13.053494358393145" endPos="33.053494358393145" triggered="true" expected="7363797_7769378_0"/>
        <stop lane="36999946#10_1" duration="1.0"/>
    </vehicle>
    <person id="7363797_7769378_0" type="pedestrian" depart="18844.3">
        <ride from="36999946#10" to="449378297#3" arrivalPos="284.96616271820415" lines="7363797_7769378_0_tr"/>
        <stop lane="449378297#3_0" duration="22171.569695702616" actType="P-D"/>
        <ride from="449378297#3" to="-525823906#0" arrivalPos="23.053494358393145" lines="7363797_7769378_0_tr"/>
        <stop lane="-525823906#0_0" duration="13450.291308299229" actType="S-L"/>
        <ride from="-525823906#0" to="36999946#10" arrivalPos="40.45566837797275" lines="7363797_7769378_0_tr"/>
        <stop lane="36999946#10_0" duration="1.0" actType="Home"/>
    </person>
    <person id="7363780_7768892_2" type="pedestrian" depart="18965.63">
        <walk edges="-547226030#0 -547226030#1 449380213 -449380189 -449380207 440356231#9 451676892 -621257570 451676900#1 451676900#0 24437173#2 -559744127 559744124#0 559744124#1 559744124#2 559744129 -276937021#5" busStop="-2099903865"/>
        <ride busStop="-7152453358" lines="1:0" intended="subway_1:0.34" depart="20545.0"/>
        <walk edges="442518549#17" busStop="-7152453359"/>
        <ride busStop="-4570243010" lines="4:1" intended="subway_4:1.34" depart="20978.0"/>
        <walk edges="44669545#0 36999946#21" arrivalPos="203.83621027973004"/>
        <stop lane="36999946#21_0" duration="13219.568962906715" actType="P-M"/>
        <walk edges="36999946#21 44669545#0" busStop="4570243010"/>
        <ride busStop="4570243009" lines="4:0" intended="subway_4:0.58" depart="34885.0"/>
        <walk edges="442518549#13 -296360710#3 -296360710#2 -296360710#1 -296360710#0 296360708#3 527047637" arrivalPos="30.020280117176274"/>
        <stop lane="527047637_0" duration="2295.1002918442327" actType="S-S"/>
        <walk edges="527047637 296360708#3 -296360710#0 -296360710#1 -296360710#2 -296360710#3 442518549#13" busStop="-4570243009"/>
        <ride busStop="-4570243010" lines="4:1" intended="subway_4:1.63" depart="38445.0"/>
        <walk edges="44669545#0 36999946#21" arrivalPos="203.83621027973004"/>
        <stop lane="36999946#21_0" duration="13918.20333200956" actType="P-A"/>
        <walk edges="36999946#21 44669545#0" busStop="4570243010"/>
        <ride busStop="4625473982" lines="4:0" intended="subway_4:0.88" depart="52885.0"/>
        <walk edges="621655561 621156398#0" busStop="5866058295"/>
        <ride busStop="5866058290" lines="9011:0" intended="bus_9011:0.89" depart="53615.0"/>
        <walk edges="44669548#1 44669548#2 44669548#3 620937811#0 620937811#1 117947985 419912484#0 419912484#1 -44669551#3 117947975#3 117947975#2 117947975#1 117947975#0 117947979 117947970#3 117947971#2 -449380194#0 -449380194#1 -449380205#0 -449380205#1 -547226030#0" arrivalPos="17.37729739246578"/>
        <stop lane="-547226030#0_0" duration="1.0" actType="Home"/>
    </person>
    <person id="7363779_7363834_2" type="pedestrian" depart="19023.24">
        <walk edges="454323282#0 454323282#1 454323147 -454323245 454323131#1 -454323139 -621164893#0" busStop="-5866058277"/>
        <ride busStop="5867517607" lines="9004:0" intended="bus_9004:0.32" depart="19578.0"/>
        <walk edges="348725324#4 348725324#3 -44669532#1 36999946#2 36999946#3 36999946#4 36999946#5" busStop="-7152453359"/>
        <ride busStop="-4570243009" lines="4:1" intended="subway_4:1.33" depart="20378.0"/>
        <walk edges="-442386648#8 -442386648#7 -442386648#6 454323080#0" arrivalPos="16.861448501019726"/>
        <stop lane="454323080#0_0" duration="27536.26633483275" actType="P-D"/>
        <walk edges="454323080#0 -442386648#6 -442386648#7 -442386648#8" busStop="4570243009"/>
        <ride busStop="4570243008" lines="4:0" intended="subway_4:0.81" depart="48774.0"/>
        <walk edges="620937807#4 620937810#0 620937810#1 620937810#2 620937810#3 -454323085#0 -454323085#1 -559744152 454323282#0" arrivalPos="131.57131518523414"/>
        <stop lane="454323282#0_0" duration="1769.2594465490677" actType="Home"/>
        <walk edges="454323282#0 454323282#1 -454323147 454323245 454323131#0 454323139 -621164893#1" busStop="-5866058279"/>
        <ride busStop="5867517607" lines="9004:0" intended="bus_9004:0.86" depart="51922.0"/>
        <walk edges="348725324#4 348725324#5 621156393 621156404" arrivalPos="84.67505067272543"/>
        <stop lane="621156404_0" duration="1036.702632239645" actType="S-S"/>
        <walk edges="621156404 621156387 44669522#0 44669522#1" busStop="5867326285"/>
        <ride busStop="5866058276" lines="9003:0" intended="bus_9003:0.89" depart="53760.0"/>
        <walk edges="454323085#2 559744152 454323282#0" arrivalPos="131.57131518523414"/>
        <stop lane="454323282#0_0" duration="1.0" actType="Home"/>
    </person>
    <person id="7363779_7783858_0" type="pedestrian" depart="19397.02">
        <walk edges="419912509#1 419912509#0 419912483 419912484#3 419912484#2 44669551#3 117947975#4 117947975#5 117947975#6 419912497 419909929#0 621655568#1" busStop="5866058291"/>
        <ride busStop="-5866058270" lines="9011:0" intended="bus_9011:0.33" depart="20155.0"/>
        <walk edges="-620937810#1 -620937810#0 -620937804" busStop="-4570243008"/>
        <ride busStop="-4570243010" lines="4:1" intended="subway_4:1.34" depart="20896.0"/>
        <walk edges="442518549#6 -44669545#1 -44669545#2 -44669545#3 -44669545#4 -44669545#5 298460112#2 -559744222#0 -559744222#1 -298460114#0 -298460114#1 -298460114#2 -298460114#3 449258932 -449258973#3 -449258955#2 -449258955#3 -449258955#4 -449258955#5 -449258955#6 -449258955#7 -44678823#2 -44669553#9 -44669553#8 -44669553#7 -44669553#6 -44669553#5 -44669553#4 -44669553#3 -44669553#2 -44669553#1 449258972#0 -449258926 128898268" arrivalPos="39.00012681813327"/>
        <stop lane="128898268_0" duration="23569.078788850267" actType="P-D"/>
        <walk edges="128898268 -449258926 449258972#0 -44669553#1 -44669553#2 44669553#3 -315087299#3 -315087299#2 -315087299#1 315087299#0 543833475#1 -543833475#0 -316161555#5 -316161555#4 -316161555#3 -316161555#2 -316161555#1 -316161555#0 -66254469#2 66254469#1 449378253 -449378260 -449378242#9 618059881#0 -618059881#1 344310547#7 344310547#6" busStop="2101696074"/>
        <ride busStop="7152453358" lines="1:1" intended="subway_1:1.80" depart="48057.0"/>
        <walk edges="442518549#17" busStop="7152453359"/>
        <ride busStop="4625473982" lines="4:0" intended="subway_4:0.80" depart="48241.0"/>
        <walk edges="621655561 621156398#0" busStop="5866058295"/>
        <ride busStop="5866058290" lines="9011:0" intended="bus_9011:0.81" depart="48815.0"/>
        <walk edges="44669548#1 44669548#2 44669548#3 620937811#0 620937811#1 117947985 419912484#0 419912484#1 419912484#2 419912484#3 419912483 419912509#0 419912509#1" arrivalPos="80.52872650304055"/>
        <stop lane="419912509#1_0" duration="3008.356801359978" actType="Home"/>
        <walk edges="419912509#1 419912509#0 419912483 419912484#3 419912484#2 419912484#1 419912484#0 117947985 620937811#1 620937811#0 44669548#3 44669548#2 44669548#1 44669548#0 621156398#1 621156398#0 621655561" busStop="-4625473982"/>
        <ride busStop="-7152453359" lines="4:1" intended="subway_4:1.89" depart="53823.0"/>
        <walk edges="36999946#5 36999946#6 454323266#0 -454323170 296360974#2" arrivalPos="54.30127550577849"/>
        <stop lane="296360974#2_0" duration="3294.703669155087" actType="S-S"/>
        <walk edges="296360974#2 -454323170 454323266#0 36999946#6 36999946#5" busStop="7152453359"/>
        <ride busStop="4625473982" lines="4:0" intended="subway_4:0.96" depart="57841.0"/>
        <walk edges="621655561 621156398#0" busStop="5866058295"/>
        <ride busStop="5866058290" lines="9011:0" intended="bus_9011:0.97" depart="58415.0"/>
        <walk edges="44669548#1 44669548#2 44669548#3 620937811#0 620937811#1 117947985 419912484#0 419912484#1 419912484#2 419912484#3 419912483 419912509#0 419912509#1" arrivalPos="80.52872650304055"/>
        <stop lane="419912509#1_0" duration="1.0" actType="Home"/>
    </person>
    <person id="7363797_7772486_0" type="pedestrian" depart="19472.76">
        <walk edges="441761561#5 -131445516#0 -131445516#1 -131445516#2 -44044883#0 -44044883#1 -44044883#2 -44044883#3 -407520129 -559744224 407520124#1 525823874 407520125#0 407520125#1 -407520125#2 -407520125#3 -407520125#4 36999946#11" busStop="4570243009"/>
        <ride busStop="4570243008" lines="4:0" intended="subway_4:0.34" depart="20574.0"/>
        <walk edges="-620937804 -620937810#0 -620937810#1" busStop="-5866058270"/>
        <ride busStop="-5866058303" lines="9011:0" intended="bus_9011:0.34" depart="20945.0"/>
        <walk edges="-542543709#1 -542543709#0 -66254974 -621105921 -454323068 -621105920 -621257561 -454323067" arrivalPos="34.70135638544977"/>
        <stop lane="-454323067_0" duration="14248.941292218618" actType="P-M"/>
        <walk edges="-454323067 -621257561 -621105920 -454323068 621105921 66254974 44669520#0 44669520#1 44669520#2 -44669520#3 -454323137 620937802#1 620937802#0" busStop="-4625473982"/>
        <ride busStop="-4570243008" lines="4:1" intended="subway_4:1.60" depart="36423.0"/>
        <walk edges="620937807#4 620937810#0 620937810#1 620937810#2 620937810#3 621164893#0 -454323139 454323131#1" arrivalPos="20.239563704372458"/>
        <stop lane="454323131#1_0" duration="480.88341498009686" actType="S-S"/>
        <walk edges="454323131#1 -454323139 621164893#0 620937810#3 620937810#2 -620937810#1" busStop="-5866058270"/>
        <ride busStop="-5866058303" lines="9011:0" intended="bus_9011:0.63" depart="38345.0"/>
        <walk edges="-542543709#1 -542543709#0 -66254974 -621105921 -454323068 -621105920 -621257561 -454323067" arrivalPos="34.70135638544977"/>
        <stop lane="-454323067_0" duration="17275.704791887616" actType="P-A"/>
        <walk edges="-454323067 -621257561 -621105920 -454323068 621105921 66254974 44669520#0 44669520#1 44669520#2 -44669520#3 -454323137 620937802#1 620937802#0" busStop="-4625473982"/>
        <ride busStop="-7152453359" lines="4:1" intended="subway_4:1.94" depart="56823.0"/>
        <walk edges="442518549#17" busStop="7152453358"/>
        <ride busStop="2099903865" lines="1:1" intended="subway_1:1.95" depart="57135.0"/>
        <walk edges="276937021#5 51229439#1 478124030#0 -478124030#1 -478124030#2 478124031#0 441761561#10 441761561#9 441761561#8 441761561#7 441761561#6 441761561#5" arrivalPos="20.28887022356502"/>
        <stop lane="441761561#5_0" duration="1.0" actType="Home"/>
    </person>
    <vehicle id="7363779_7770197_1_tr" type="bicycle" depart="triggered">
        <route edges="-525823901 525823902#1 454323076 621156389#0 621156389#1 621156398#0 621156398#1 44669548#0 559744146#0 559744143 525823903#1 -525823901"/>
        <stop lane="559744146#0_1" parking="true" startPos="34.172096715832176" endPos="54.172096715832176" triggered="true" expected="7363779_7770197_1"/>
        <stop lane="-525823901_1" duration="1.0"/>
    </vehicle>
    <person id="7363779_7770197_1" type="pedestrian" depart="19769.6">
        <ride from="-525823901" to="559744146#0" arrivalPos="44.172096715832176" lines="7363779_7770197_1_tr"/>
        <stop lane="559744146#0_0" duration="28526.94458053278" actType="P-D"/>
        <ride from="559744146#0" to="-525823901" arrivalPos="300.2058483422703" lines="7363779_7770197_1_tr"/>
        <stop lane="-525823901_0" duration="1.0" actType="Home"/>
    </person>
    <vehicle id="7363797_7769374_0_tr" type="motorcycle" depart="triggered">
        <route edges="478124021#0 478124021#1 131445524#1 131445517 -131443655#2 -131443655#1 -131443655#0 -36999945#7 -36999945#6 -36999945#5 -36999945#4 -36999945#3 -36999945#2 -36999945#1 442067149#0 442067149#1 -442067149#1 -442067149#0 36999945#1 36999945#2 44669539#0 44669539#1 44669539#2 44669539#3 -448092202#2 -448092202#1 -448092202#0 -448092220 -448092221 -131443655#3 -131445517 -131445524#1 -478124021#1 -478124021#0 -559744082 559744082 478124021#0"/>
        <stop parkingArea="4451401346" triggered="true" expected="7363797_7769374_0"/>
        <stop lane="478124021#0_2" duration="1.0"/>
    </vehicle>
    <person id="7363797_7769374_0" type="pedestrian" depart="19837.03">
        <ride from="478124021#0" to="-442067149#1" arrivalPos="15.240000000000002" lines="7363797_7769374_0_tr"/>
        <walk edges="-442067149#1 -442067149#0 -36999945#0 44669545#0 44669545#1 44669545#2 44669545#3 44669545#4 44669545#5 44669545#6 44669545#7 621671425#0 621671425#1 -36999940#4 -36999940#3 -36999940#2 36999940#1 449254448#0" arrivalPos="52.18"/>
        <stop lane="449254448#0_0" duration="27144.559412606148" actType="P-D"/>
        <walk edges="449254448#0 36999940#1 -36999940#2 -36999940#3 -36999940#4 621671425#1 621671425#0 44669545#7 44669545#6 44669545#5 44669545#4 44669545#3 44669545#2 44669545#1 44669545#0 -36999945#0 -442067149#0 -442067149#1" arrivalPos="15.240000000000002"/>
        <ride from="-442067149#1" to="478124021#0" arrivalPos="41.936982128981896" lines="7363797_7769374_0_tr"/>
        <stop lane="478124021#0_0" duration="1.0" actType="Home"/>
    </person>
    <person id="7363779_7768888_1" type="pedestrian" depart="19848.5">
        <walk edges="621257539 117947970#1 117947970#2 117947970#3 117947979 117947975#0 117947975#1 117947975#2 117947975#3 117947975#4 117947975#5 117947975#6 419912497 419909929#0 419909929#1 419909929#2 419909929#3 419909929#4 621156391#0 621156391#1 621156390" busStop="-4625473982"/>
        <ride busStop="-4570243009" lines="4:1" intended="subway_4:1.35" depart="21423.0"/>
        <walk edges="442518549#12" arrivalPos="145.7579057813587"/>
        <stop lane="442518549#12_0" duration="22416.09602035646" actType="P-D"/>
        <walk edges="442518549#12" busStop="4570243009"/>
        <ride busStop="7152453359" lines="4:0" intended="subway_4:0.74" depart="44574.0"/>
        <walk edges="442518549#17 442518549#18 -442518548#5" arrivalPos="27.218181237346005"/>
        <stop lane="-442518548#5_0" duration="11635.61412287432" actType="S-L"/>
        <walk edges="-442518548#5 442518549#18 442518549#17" busStop="7152453359"/>
        <ride busStop="4625473982" lines="4:0" intended="subway_4:0.94" depart="56641.0"/>
        <walk edges="621655561 621156398#0" busStop="5866058295"/>
        <ride busStop="5866058290" lines="9011:0" intended="bus_9011:0.95" depart="57215.0"/>
        <walk edges="44669548#1 44669548#2 44669548#3 620937811#0 620937811#1 117947985 419912484#0 419912484#1 -44669551#3 117947975#3 117947975#2 117947975#1 117947975#0 117947979 117947970#3 117947970#2 117947970#1 621257539" arrivalPos="14.524122253626647"/>
        <stop lane="621257539_0" duration="1.0" actType="Home"/>
    </person>
    <vehicle id="7363779_7769380_0_tr" type="motorcycle" depart="triggered">
        <route edges="559744179#1 -559744179#1 621655566#1 621655564 621655565 621655563#0 621655563#1 69707955#0 69707955#1 69707955#2 621156406 621156403 36999946#1 36999946#2 36999946#3 36999946#4 36999946#5 36999946#6 36999946#7 36999946#8 36999946#9 36999946#10 36999946#11 36999946#12 36999946#13 36999946#14 36999946#15 36999946#16 36999946#17 36999946#18 36999946#19 36999946#20 36999945#0 442067149#0 442067149#1 -442067149#1 -442067149#0 -36999945#0 44669545#0 442518549#6 442518549#7 442518549#8 442518549#9 442518549#10 442518549#11 442518549#12 442518549#13 442518549#14 442518549#15 442518549#16 442518549#17 442518549#18 442518549#19 442518549#20 442518549#21 621156401#1 621156401#2 620937806#0 620937806#1 620937806#2 620937802#0 621156399 621156398#0 621156398#1 44669548#0 44669548#1 44669548#2 44669548#3 620937811#0 621655568#0 621655568#1 621655568#2 621655567 621655566#0 559744179#1"/>
        <stop parkingArea="4451401346" triggered="true" expected="7363779_7769380_0"/>
        <stop parkingArea="5237364665" triggered="true" expected="7363779_7769380_0"/>
        <stop lane="559744179#1_2" duration="1.0"/>
    </vehicle>
    <person id="7363779_7769380_0" type="pedestrian" depart="20078.17">
        <ride from="559744179#1" to="-442067149#1" arrivalPos="15.240000000000002" lines="7363779_7769380_0_tr"/>
        <walk edges="-442067149#1 -442067149#0 -36999945#0 44669545#0 44669545#1 -44669545#2 -44669545#3 -44669545#4 -44669545#5 298460112#2 298460112#1 298460112#0 454323298 454323297 44669526#0 44669526#1 44669526#2 44669526#3 44669526#4 442386644#0 442386644#1 442386644#2 -298460270#3 298460270#2 298460270#1 298460270#0 112973829#7 -442386648#3 -442386648#2 -442386648#1" arrivalPos="59.73"/>
        <stop lane="-442386648#1_0" duration="31042.66532653918" actType="P-D"/>
        <walk edges="-442386648#1 -442386648#2 -442386648#3 112973829#7 298460270#0 298460270#1 298460270#2 298460270#3 442386644#2 442386644#1 442386644#0 44669526#4 44669526#3 44669526#2 44669526#1 44669526#0 454323297 454323298 298460112#0 298460112#1 298460112#2 -44669545#5 -44669545#4 -44669545#3 -44669545#2 44669545#1 44669545#0 -36999945#0 -442067149#0 -442067149#1" arrivalPos="15.240000000000002"/>
        <ride from="-442067149#1" to="620937806#0" arrivalPos="92.42423940332769" lines="7363779_7769380_0_tr"/>
        <walk edges="620937806#0 24535157#5 24535157#4 -24535157#3 343405425#0 -449265272 449265286#0 449265257 449265287#3 449265275#1 449265275#0 -538444308#0 44669552#11 44669552#10 -449378296#0"/>
        <stop lane="-449378296#0_0" duration="10321.305793247788" actType="S-L"/>
        <walk edges="-449378296#0 -449378292 44669535#6 44669552#11 -538444308#0 449265275#0 449265275#1 449265287#3 449265257 449265286#0 -449265272 343405425#0 -24535157#3 24535157#4 24535157#5 620937806#0" arrivalPos="92.42423940332769"/>
        <ride from="620937806#0" to="559744179#1" arrivalPos="122.08848303613398" lines="7363779_7769380_0_tr"/>
        <stop lane="559744179#1_0" duration="1.0" actType="Home"/>
    </person>
    <vehicle id="7363797_7769378_1_tr" type="bicycle" depart="triggered">